<?xml version='1.0' encoding='ISO-8859-1'?>
<febio_spec version="1.2">
  <Material>
    <material id="1" name="Biphasic" type="biphasic">
      <solid type="neo-Hookean">
        <E>1.0</E>
        <v>0.3</v>
      </solid>
      <permeability type="perm-const-iso">
        <perm>1.0e-3</perm>
      </permeability>
    </material>
    <material id="2" name="Elastic" type="neo-Hookean">
      <E>1.0</E>
      <v>0.3</v>
    </material>
    <material id="3" name="Elastic 2" type="neo-Hookean">
      <E>2.0</E>
      <v>0.3</v>
    </material>
    <material id="4" name="Plane" type="rigid body">
      <density>1.0</density>
    </material>
  </Material>
  <Geometry>
    <Nodes>
      <node id="1">0.0,0.0,0.0</node>
      <node id="2">0.0,0.0,0.5</node>
      <node id="3">0.0,0.5,0.0</node>
      <node id="4">0.0,0.5,0.5</node>
      <node id="5">0.5,0.0,0.0</node>
      <node id="6">0.5,0.0,0.5</node>
      <node id="7">0.5,0.5,0.0</node>
      <node id="8">0.5,0.5,0.5</node>
      <node id="9">0.0,0.0,1.0</node>
      <node id="10">0.0,0.5,1.0</node>
      <node id="11">0.5,0.0,1.0</node>
      <node id="12">0.5,0.5,1.0</node>
      <node id="13">0.0,1.0,0.0</node>
      <node id="14">0.0,1.0,0.5</node>
      <node id="15">0.5,1.0,0.0</node>
      <node id="16">0.5,1.0,0.5</node>
      <node id="17">0.0,1.0,1.0</node>
      <node id="18">0.5,1.0,1.0</node>
      <node id="19">1.0,0.0,0.0</node>
      <node id="20">1.0,0.0,0.5</node>
<!-- ... 11 like lines cut -->
    </Nodes>
    <Elements>
      <hex8 id="1" mat="1">1,5,7,3,2,6,8,4</hex8>
      <hex8 id="2" mat="2">2,6,8,4,9,11,12,10</hex8>
      <hex8 id="3" mat="1">3,7,15,13,4,8,16,14</hex8>
      <hex8 id="4" mat="2">4,8,16,14,10,12,18,17</hex8>
      <hex8 id="5" mat="3">5,19,21,7,6,20,22,8</hex8>
      <hex8 id="6" mat="3">6,20,22,8,11,23,24,12</hex8>
      <hex8 id="7" mat="3">7,21,25,15,8,22,26,16</hex8>
      <hex8 id="8" mat="3">8,22,26,16,12,24,27,18</hex8>
      <quad4 id="9" mat="4">28,29,30,31</quad4>
    </Elements>
    <ElementData>
      <element id="9">
        <thickness>.01,.01,.01,.01</thickness>
      </element>
    </ElementData>
  </Geometry>
  <Output>
    <plotfile type="febio">
      <var type="displacement" />
      <var type="stress" />
      <var type="effective fluid pressure" />
      <var type="fluid flux" />
    </plotfile>
  </Output>
  <Boundary>
    <fix>
      <node bc="xyz" id="19" />
      <node bc="xyz" id="21" />
      <node bc="xyz" id="25" />
      <node bc="xyz" id="20" />
      <node bc="xyz" id="22" />
      <node bc="xyz" id="26" />
      <node bc="xyz" id="23" />
      <node bc="xyz" id="24" />
      <node bc="xyz" id="27" />
    </fix>
  </Boundary>
  <Constraints>
    <rigid_body mat="4">
      <trans_z type="fixed" />
      <rot_x type="fixed" />
      <rot_y type="fixed" />
      <rot_z type="fixed" />
    </rigid_body>
  </Constraints>
  <Step name="Displace">
    <Module type="biphasic" />
    <Boundary>
      <prescribe>
        <node bc="x" id="1" lc="1">0.1</node>
        <node bc="x" id="3" lc="1">0.1</node>
        <node bc="x" id="13" lc="1">0.1</node>
        <node bc="x" id="2" lc="1">0.1</node>
        <node bc="x" id="4" lc="1">0.1</node>
        <node bc="x" id="14" lc="1">0.1</node>
        <node bc="x" id="9" lc="1">0.1</node>
        <node bc="x" id="10" lc="1">0.1</node>
        <node bc="x" id="17" lc="1">0.1</node>
      </prescribe>
      <contact type="rigid">
        <node id="1" rb="4" />
        <node id="5" rb="4" />
        <node id="19" rb="4" />
        <node id="3" rb="4" />
        <node id="7" rb="4" />
        <node id="21" rb="4" />
        <node id="13" rb="4" />
        <node id="15" rb="4" />
        <node id="25" rb="4" />
      </contact>
    </Boundary>
    <Loads />
    <Constraints />
    <Control>
      <title>example</title>
      <time_steps>10</time_steps>
      <step_size>0.1</step_size>
      <dtol>0.001</dtol>
      <etol>0.01</etol>
      <rtol>0</rtol>
      <lstol>0.9</lstol>
      <time_stepper>
        <dtmin>0.01</dtmin>
        <dtmax>1</dtmax>
        <max_retries>10</max_retries>
        <opt_iter>10</opt_iter>
      </time_stepper>
      <max_refs>15</max_refs>
      <max_ups>10</max_ups>
      <optimize_bw>0</optimize_bw>
      <restart>0</restart>
      <plot_level>PLOT_MAJOR_ITRS</plot_level>
      <cmax>1e5</cmax>
      <analysis type="static" />
      <print_level>PRINT_MINOR_ITRS</print_level>
      <min_residual>1e-20</min_residual>
    </Control>
  </Step>
  <LoadData>
    <loadcurve id="1" type="smooth">
      <loadpoint>0,0</loadpoint>
      <loadpoint>0.5,0.33</loadpoint>
      <loadpoint>1,1</loadpoint>
    </loadcurve>
  </LoadData>
</febio_spec>
